  
       XFOIL         Version 6.99
  
 Calculated polar for: NACA 2814                                       
  
 1 1 Reynolds number fixed          Mach number fixed         
  
 xtrf =   1.000 (top)        1.000 (bottom)  
 Mach =   0.000     Re =     0.700 e 6     Ncrit =  12.000 12.000
  
   alpha    CL        CD       CDp       CM     Top_Xtr  Bot_Xtr  Top_Itr  Bot_Itr
  ------ -------- --------- --------- -------- -------- -------- -------- --------
  -2.000   0.0632   0.00988   0.00413  -0.0874   0.9457   0.4857   5.6817 129.5664
  -1.750   0.1053   0.00955   0.00391  -0.0901   0.9438   0.5094   5.8192 130.8652
  -1.500   0.1488   0.00919   0.00366  -0.0932   0.9424   0.5326   5.9214 132.1247
  -1.250   0.1926   0.00882   0.00340  -0.0963   0.9410   0.5553   6.0215 133.3609
  -0.750   0.2589   0.00808   0.00289  -0.0978   0.9301   0.5959   6.7708 135.5585
  -0.500   0.3040   0.00762   0.00256  -0.1010   0.9284   0.6170   6.8837 136.7009
  -0.250   0.3320   0.00728   0.00230  -0.1006   0.9204   0.6352   7.4290 137.6832
   0.000   0.3695   0.00685   0.00196  -0.1022   0.9143   0.6538   7.8341 138.6866
   0.250   0.3956   0.00657   0.00172  -0.1012   0.9013   0.6707   8.6971 139.5988
   0.750   0.4667   0.00601   0.00116  -0.1035   0.8431   0.7035  12.4420 141.3680
   1.000   0.5036   0.00616   0.00093  -0.1050   0.7765   0.7187  16.4675 142.1884
   1.250   0.5276   0.00648   0.00098  -0.1038   0.7344   0.7328  18.8228 142.9513
   1.500   0.5507   0.00672   0.00106  -0.1026   0.7004   0.7454  20.7037 143.6359
   1.750   0.5742   0.00695   0.00112  -0.1014   0.6697   0.7575  22.3948 144.2967
   2.250   0.6214   0.00741   0.00125  -0.0991   0.6125   0.7796  25.5415 145.5121
   2.500   0.6452   0.00767   0.00130  -0.0981   0.5855   0.7900  27.0327 146.0930
   2.750   0.6693   0.00788   0.00137  -0.0971   0.5589   0.7992  28.5056 146.6162
   3.000   0.6932   0.00813   0.00142  -0.0961   0.5327   0.8084  29.9563 147.1451
   3.250   0.7175   0.00834   0.00148  -0.0952   0.5070   0.8169  31.3789 147.6428
   3.500   0.7418   0.00857   0.00153  -0.0943   0.4812   0.8254  32.8178 148.1468
   3.750   0.7657   0.00880   0.00158  -0.0933   0.4563   0.8334  34.2088 148.6243
   4.000   0.7902   0.00903   0.00163  -0.0925   0.4307   0.8417  35.6482 149.1188
   4.250   0.8136   0.00927   0.00169  -0.0915   0.4057   0.8494  37.0573 149.5851
   4.500   0.8383   0.00951   0.00173  -0.0908   0.3804   0.8576  38.4924 150.0746
   4.750   0.8613   0.00977   0.00180  -0.0897   0.3552   0.8653  39.9259 150.5424
   5.000   0.8857   0.01004   0.00185  -0.0889   0.3302   0.8733  41.3649 151.0315
   5.250   0.9083   0.01029   0.00192  -0.0878   0.3052   0.8812  42.8133 151.5148
   5.750   0.9540   0.01087   0.00207  -0.0857   0.2563   0.8979  45.6913 152.5361
   6.000   0.9767   0.01121   0.00216  -0.0846   0.2327   0.9067  47.1081 153.0799
   6.250   0.9980   0.01149   0.00225  -0.0833   0.2103   0.9162  48.4781 153.6756
   6.500   1.0186   0.01183   0.00235  -0.0818   0.1887   0.9267  49.8282 154.3377
   6.750   1.0382   0.01216   0.00246  -0.0801   0.1691   0.9394  51.0841 155.1623
   7.000   1.0559   0.01242   0.00253  -0.0779   0.1519   0.9606  52.2309 156.6089
   7.250   1.0806   0.01280   0.00265  -0.0775   0.1345   1.0000  53.4380 160.0000
   7.500   1.1057   0.01329   0.00285  -0.0773   0.1194   1.0000  54.5482 160.0000
   7.750   1.1301   0.01377   0.00306  -0.0769   0.1068   1.0000  55.5351 160.0000
   8.000   1.1536   0.01425   0.00328  -0.0762   0.0965   1.0000  56.3979 160.0000
