  
       XFOIL         Version 6.99
  
 Calculated polar for: NACA 2814                                       
  
 1 1 Reynolds number fixed          Mach number fixed         
  
 xtrf =   0.200 (top)        0.450 (bottom)  
 Mach =   0.000     Re =     0.700 e 6     Ncrit =  12.000 12.000
  
   alpha    CL        CD       CDp       CM     Top_Xtr  Bot_Xtr  Top_Itr  Bot_Itr
  ------ -------- --------- --------- -------- -------- -------- -------- --------
  -2.000   0.1018   0.00996   0.00101  -0.0927   0.2000   0.4500  49.1150 127.6107
  -1.750   0.1304   0.00998   0.00098  -0.0927   0.2000   0.4500  49.1150 127.6107
  -1.500   0.1590   0.01000   0.00096  -0.0928   0.2000   0.4500  49.1150 127.6107
  -1.250   0.1875   0.01003   0.00094  -0.0928   0.2000   0.4500  49.1150 127.6107
  -1.000   0.2160   0.01007   0.00093  -0.0928   0.2000   0.4500  49.1150 127.6107
  -0.750   0.2445   0.01011   0.00092  -0.0928   0.2000   0.4500  49.1150 127.6107
  -0.500   0.2729   0.01015   0.00091  -0.0928   0.2000   0.4500  49.1150 127.6107
  -0.250   0.3013   0.01019   0.00091  -0.0928   0.2000   0.4500  49.1150 127.6107
   0.000   0.3296   0.01024   0.00091  -0.0928   0.2000   0.4500  49.1150 127.6107
   0.250   0.3579   0.01029   0.00091  -0.0928   0.2000   0.4500  49.1150 127.6107
   0.500   0.3862   0.01035   0.00092  -0.0928   0.2000   0.4500  49.1150 127.6107
   0.750   0.4144   0.01041   0.00093  -0.0927   0.2000   0.4500  49.1150 127.6107
   1.000   0.4426   0.01047   0.00094  -0.0927   0.2000   0.4500  49.1150 127.6107
   1.250   0.4707   0.01053   0.00095  -0.0926   0.2000   0.4500  49.1150 127.6107
   1.500   0.4987   0.01060   0.00096  -0.0925   0.2000   0.4500  49.1150 127.6107
   1.750   0.5267   0.01067   0.00098  -0.0924   0.2000   0.4500  49.1150 127.6107
   2.000   0.5547   0.01074   0.00100  -0.0923   0.2000   0.4500  49.1150 127.6107
   2.250   0.5826   0.01081   0.00102  -0.0922   0.2000   0.4500  49.1150 127.6107
   2.500   0.6104   0.01089   0.00104  -0.0921   0.2000   0.4500  49.1150 127.6107
   2.750   0.6381   0.01097   0.00106  -0.0920   0.2000   0.4500  49.1150 127.6107
   3.000   0.6658   0.01106   0.00109  -0.0918   0.2000   0.4500  49.1150 127.6107
   3.250   0.6934   0.01115   0.00112  -0.0917   0.2000   0.4500  49.1150 127.6107
   3.500   0.7209   0.01124   0.00115  -0.0915   0.2000   0.4500  49.1150 127.6107
   3.750   0.7483   0.01133   0.00119  -0.0913   0.2000   0.4500  49.1150 127.6107
   4.000   0.7756   0.01143   0.00123  -0.0911   0.2000   0.4500  49.1150 127.6107
   4.250   0.8029   0.01153   0.00127  -0.0908   0.2000   0.4500  49.1150 127.6107
   4.500   0.8300   0.01164   0.00131  -0.0906   0.2000   0.4500  49.1150 127.6107
   4.750   0.8570   0.01175   0.00136  -0.0903   0.2000   0.4500  49.1150 127.6107
   5.000   0.8839   0.01187   0.00141  -0.0900   0.2000   0.4500  49.1150 127.6107
   5.250   0.9107   0.01199   0.00147  -0.0897   0.2000   0.4500  49.1150 127.6107
   5.500   0.9374   0.01211   0.00153  -0.0893   0.2000   0.4500  49.1150 127.6107
   5.750   0.9638   0.01225   0.00160  -0.0890   0.2000   0.4500  49.1150 127.6107
   6.000   0.9902   0.01239   0.00169  -0.0885   0.2000   0.4500  49.1150 127.6107
   6.250   1.0162   0.01255   0.00179  -0.0880   0.2000   0.4500  49.1150 127.6107
   6.500   1.0399   0.01291   0.00193  -0.0872   0.1822   0.4500  50.2388 127.6107
   6.750   1.0627   0.01332   0.00209  -0.0863   0.1619   0.4500  51.5574 127.6107
   7.000   1.0849   0.01378   0.00227  -0.0852   0.1435   0.4500  52.8039 127.6107
   7.250   1.1068   0.01425   0.00247  -0.0841   0.1273   0.4500  53.9553 127.6107
   7.750   1.1501   0.01515   0.00287  -0.0818   0.1026   0.4500  55.8739 127.6107
   8.000   1.1718   0.01557   0.00307  -0.0807   0.0937   0.4500  56.6413 127.6107
