  
       XFOIL         Version 6.99
  
 Calculated polar for: don_test14                                      
  
 1 1 Reynolds number fixed          Mach number fixed         
  
 xtrf =   1.000 (top)        1.000 (bottom)  
 Mach =   0.000     Re =     0.700 e 6     Ncrit =  12.000 12.000
  
   alpha    CL        CD       CDp       CM     Top_Xtr  Bot_Xtr  Top_Itr  Bot_Itr
  ------ -------- --------- --------- -------- -------- -------- -------- --------
   0.165   0.4000   0.00698   0.00202  -0.1060   0.9138   0.6625   7.8718 139.1548
   0.218   0.4000   0.00669   0.00183  -0.1049   0.9122   0.6659   7.9606 141.3459
   0.652   0.4000   0.00596   0.00131  -0.0922   0.8537   0.7387  11.6607 143.2027
   0.463   0.4000   0.00607   0.00142  -0.0990   0.8823   0.7084  10.8400 142.1482
   0.494   0.4000   0.00614   0.00158  -0.0977   0.8848   0.7332  10.6813 143.5513
   0.214   0.4000   0.00645   0.00184  -0.1048   0.9074   0.7203   8.6090 142.8220
   0.171   0.4000   0.00638   0.00175  -0.1058   0.9036   0.7110   8.6476 141.0379
  -0.483   0.4000   0.00743   0.00265  -0.1189   0.9234   0.6735  22.7812 215.0252
   0.171   0.4000   0.00638   0.00175  -0.1058   0.9036   0.7110   8.6476 141.0379
   0.167   0.4000   0.00623   0.00153  -0.1055   0.8859   0.7003   9.8048 140.4364
   0.166   0.4000   0.00623   0.00153  -0.1055   0.8859   0.7003   9.8049 140.4364
   0.171   0.4000   0.00638   0.00175  -0.1058   0.9036   0.7110   8.6472 141.0377
   0.850   0.4000   0.00582   0.00118  -0.0890   0.8373   0.7451  14.7348 145.2275
   1.084   0.4000   0.00591   0.00105  -0.0836   0.7998   0.7585  19.0665 147.9815
   0.850   0.4000   0.00582   0.00118  -0.0890   0.8373   0.7451  14.7348 145.2275
