  
       XFOIL         Version 6.99
  
 Calculated polar for: don_test3                                       
  
 1 1 Reynolds number fixed          Mach number fixed         
  
 xtrf =   1.000 (top)        1.000 (bottom)  
 Mach =   0.000     Re =     0.700 e 6     Ncrit =  12.000 12.000
  
   alpha    CL        CD       CDp       CM     Top_Xtr  Bot_Xtr  Top_Itr  Bot_Itr
  ------ -------- --------- --------- -------- -------- -------- -------- --------
   0.770   0.4000   0.00606   0.00151  -0.0913   0.8761   0.7515  12.3507 145.9702
   0.770   0.4000   0.00606   0.00151  -0.0913   0.8761   0.7515  12.3507 145.9702
   0.770   0.4000   0.00606   0.00151  -0.0913   0.8761   0.7515  12.3507 145.9702
   0.770   0.4000   0.00606   0.00151  -0.0913   0.8761   0.7515  12.3507 145.9702
   0.767   0.4000   0.00604   0.00151  -0.0911   0.8750   0.7512  10.6049 143.4393
   0.768   0.4000   0.00604   0.00151  -0.0911   0.8749   0.7513  10.5413 143.5018
   0.765   0.4000   0.00604   0.00150  -0.0911   0.8748   0.7508  10.3897 143.6028
   0.765   0.4000   0.00606   0.00151  -0.0912   0.8767   0.7511  10.2277 143.7154
   0.788   0.4000   0.00604   0.00147  -0.0903   0.8725   0.7514  10.4974 143.8651
   0.652   0.4000   0.00596   0.00131  -0.0922   0.8537   0.7387  11.6607 143.2026
   0.634   0.4000   0.00594   0.00139  -0.0942   0.8705   0.7337  10.6023 142.5814
