  
       XFOIL         Version 6.99
  
 Calculated polar for: test2                                           
  
 1 1 Reynolds number fixed          Mach number fixed         
  
 xtrf =   1.000 (top)        1.000 (bottom)  
 Mach =   0.000     Re =     0.700 e 6     Ncrit =  12.000 12.000
  
   alpha    CL        CD       CDp       CM     Top_Xtr  Bot_Xtr  Top_Itr  Bot_Itr
  ------ -------- --------- --------- -------- -------- -------- -------- --------
  -2.000  -0.0970   0.00645   0.00114  -0.0410   0.9185   0.5067   7.5087 132.7262
  -1.750  -0.0685   0.00617   0.00109  -0.0410   0.9059   0.5710   8.3417 136.2210
  -1.500  -0.0416   0.00600   0.00107  -0.0406   0.8917   0.6160   9.2715 138.6544
  -1.250  -0.0148   0.00588   0.00105  -0.0402   0.8767   0.6508  10.2397 140.5373
  -0.750   0.0394   0.00576   0.00101  -0.0393   0.8452   0.7019  14.2696 143.2874
  -0.500   0.0663   0.00574   0.00101  -0.0389   0.8282   0.7241  15.3940 144.4878
  -0.250   0.0931   0.00574   0.00101  -0.0384   0.8099   0.7451  16.5247 145.6236
   0.000   0.1199   0.00577   0.00102  -0.0378   0.7913   0.7637  17.6297 146.6405
   0.250   0.1465   0.00582   0.00103  -0.0373   0.7718   0.7797  18.7498 147.5201
   0.500   0.1731   0.00589   0.00104  -0.0368   0.7517   0.7941  19.8793 148.3285
   0.750   0.1996   0.00597   0.00106  -0.0362   0.7311   0.8088  21.0230 149.1741
   1.000   0.2261   0.00606   0.00109  -0.0357   0.7100   0.8218  22.1933 149.9353
   1.250   0.2522   0.00615   0.00112  -0.0351   0.6880   0.8336  23.4027 150.6339
   1.500   0.2783   0.00625   0.00114  -0.0345   0.6651   0.8446  24.6656 151.3780
   2.000   0.3293   0.00651   0.00122  -0.0330   0.6171   0.8656  27.3095 153.5269
   2.250   0.3541   0.00667   0.00126  -0.0322   0.5900   0.8767  28.8074 154.2089
   2.500   0.3784   0.00686   0.00131  -0.0312   0.5593   0.8871  30.5029 154.8454
   2.750   0.4019   0.00707   0.00138  -0.0300   0.5288   0.8958  32.1910 155.3803
   3.000   0.4260   0.00730   0.00145  -0.0291   0.4993   0.9049  33.8342 155.9448
   3.250   0.4488   0.00753   0.00154  -0.0277   0.4707   0.9122  35.4268 156.4014
   3.500   0.4722   0.00780   0.00162  -0.0267   0.4417   0.9211  37.0504 156.9594
   3.750   0.4937   0.00804   0.00170  -0.0251   0.4137   0.9280  38.6316 157.4021
   4.250   0.5371   0.00846   0.00181  -0.0221   0.3696   0.9439  41.1328 158.4434
   4.500   0.5590   0.00864   0.00184  -0.0207   0.3516   0.9528  42.1605 159.0414
   4.750   0.5798   0.00874   0.00182  -0.0190   0.3359   0.9624  43.0576 159.7198
   5.000   0.6040   0.00883   0.00181  -0.0181   0.3219   0.9712  43.8699 160.3719
   5.250   0.6344   0.00898   0.00185  -0.0186   0.3085   0.9772  44.6432 160.8382
   5.500   0.6687   0.00917   0.00192  -0.0201   0.2953   0.9814  45.4144 161.1734
   5.750   0.7072   0.00942   0.00203  -0.0225   0.2812   0.9844  46.2388 161.4304
   6.000   0.7468   0.00968   0.00213  -0.0251   0.2665   0.9872  47.1067 161.6753
   6.250   0.7834   0.00993   0.00222  -0.0271   0.2500   0.9910  48.0894 161.9953
   6.500   0.8217   0.01017   0.00230  -0.0296   0.2295   0.9927  49.3275 162.1862
   6.750   0.8571   0.01066   0.00242  -0.0316   0.1836   0.9951  52.1738 162.4488
   7.000   0.8857   0.01186   0.00297  -0.0327   0.1065   0.9983  57.5855 162.8088
   7.250   0.9122   0.01244   0.00330  -0.0329   0.0910   1.0000  58.9046 163.0000
   7.500   0.9247   0.01271   0.00341  -0.0301   0.0834   1.0000  59.6212 163.0000
   7.750   0.9360   0.01303   0.00354  -0.0270   0.0768   1.0000  60.2784 163.0000
   8.000   0.9479   0.01342   0.00370  -0.0241   0.0709   1.0000  60.9135 163.0000
