  
       XFOIL         Version 6.99
  
 Calculated polar for: test4                                           
  
 1 1 Reynolds number fixed          Mach number fixed         
  
 xtrf =   1.000 (top)        1.000 (bottom)  
 Mach =   0.000     Re =     0.700 e 6     Ncrit =  12.000 12.000
  
   alpha    CL        CD       CDp       CM     Top_Xtr  Bot_Xtr  Top_Itr  Bot_Itr
  ------ -------- --------- --------- -------- -------- -------- -------- --------
  -1.500  -0.0545   0.00731   0.00295  -0.0395   0.9138   0.7958   7.8290 148.4269
  -1.250  -0.0239   0.00742   0.00304  -0.0398   0.9115   0.8131   7.9781 149.4241
  -1.000  -0.0011   0.00747   0.00318  -0.0384   0.9047   0.8266   8.4250 150.2253
  -0.750   0.0297   0.00737   0.00309  -0.0384   0.8987   0.8376   8.8202 150.8774
  -0.500   0.0578   0.00739   0.00312  -0.0381   0.8929   0.8443   9.1961 151.3588
  -0.250   0.0841   0.00742   0.00315  -0.0375   0.8873   0.8513   9.5604 151.9002
   0.000   0.1141   0.00743   0.00312  -0.0377   0.8830   0.8564   9.8386 152.8906
   0.250   0.1420   0.00744   0.00315  -0.0375   0.8782   0.8605  10.1444 153.2199
   0.500   0.1679   0.00749   0.00322  -0.0368   0.8726   0.8650  10.5071 153.4977
   0.750   0.1967   0.00749   0.00318  -0.0369   0.8685   0.8695  10.7711 153.7681
   1.000   0.2267   0.00748   0.00309  -0.0374   0.8649   0.8736  11.0028 154.0197
   1.250   0.2540   0.00745   0.00311  -0.0371   0.8601   0.8766  11.8500 154.2005
   1.500   0.2821   0.00746   0.00312  -0.0370   0.8553   0.8795  13.1514 154.3818
   1.750   0.3099   0.00745   0.00308  -0.0368   0.8498   0.8830  13.9052 154.5971
   2.000   0.3344   0.00743   0.00299  -0.0359   0.8406   0.8876  14.5865 154.8790
   2.250   0.3608   0.00736   0.00286  -0.0355   0.8310   0.8909  15.2266 155.0816
   2.500   0.3863   0.00736   0.00285  -0.0347   0.8210   0.8936  15.8519 155.2484
   2.750   0.4109   0.00740   0.00284  -0.0338   0.8105   0.8966  16.4939 155.4315
   3.000   0.4364   0.00740   0.00276  -0.0331   0.7981   0.8998  17.2349 155.6304
   3.250   0.4613   0.00740   0.00264  -0.0324   0.7822   0.9034  18.1596 155.8562
   3.500   0.4850   0.00738   0.00251  -0.0315   0.7616   0.9066  19.3306 156.0533
   3.750   0.5067   0.00743   0.00246  -0.0299   0.7341   0.9089  20.8643 156.1947
   4.000   0.5258   0.00760   0.00239  -0.0278   0.6918   0.9116  23.1990 156.3673
   4.250   0.5378   0.00799   0.00232  -0.0243   0.6191   0.9157  27.2067 156.6224
   4.500   0.5442   0.00865   0.00232  -0.0200   0.5185   0.9210  32.7661 156.9548
   4.750   0.5509   0.00924   0.00245  -0.0157   0.4341   0.9248  37.4791 157.1996
   5.000   0.5635   0.00973   0.00255  -0.0126   0.3767   0.9287  40.7253 157.4499
   5.250   0.5804   0.01011   0.00260  -0.0106   0.3346   0.9328  43.1340 157.7145
   5.500   0.6002   0.01047   0.00263  -0.0093   0.2970   0.9365  45.3158 157.9509
   5.750   0.6159   0.01075   0.00267  -0.0070   0.2571   0.9399  47.6643 158.1765
   6.000   0.6281   0.01125   0.00272  -0.0040   0.1975   0.9444  51.2994 158.4767
   6.250   0.6337   0.01221   0.00296  -0.0000   0.1055   0.9505  57.6601 158.8845
   6.500   0.6483   0.01254   0.00307   0.0025   0.0881   0.9553  59.1694 159.2197
   6.750   0.6652   0.01282   0.00313   0.0046   0.0765   0.9602  60.3092 159.5664
   7.000   0.6837   0.01314   0.00320   0.0061   0.0675   0.9646  61.2992 159.8818
   7.250   0.7024   0.01343   0.00329   0.0077   0.0604   0.9692  62.1554 160.2190
   7.500   0.7229   0.01382   0.00342   0.0088   0.0545   0.9735  62.9497 160.5517
   7.750   0.7463   0.01408   0.00352   0.0093   0.0500   0.9775  63.6101 160.8595
   8.000   0.7693   0.01459   0.00377   0.0097   0.0460   0.9809  64.2428 161.1379
