  
       XFOIL         Version 6.99
  
 Calculated polar for: test6                                           
  
 1 1 Reynolds number fixed          Mach number fixed         
  
 xtrf =   1.000 (top)        1.000 (bottom)  
 Mach =   0.000     Re =     0.700 e 6     Ncrit =  12.000 12.000
  
   alpha    CL        CD       CDp       CM     Top_Xtr  Bot_Xtr  Top_Itr  Bot_Itr
  ------ -------- --------- --------- -------- -------- -------- -------- --------
  -1.750  -0.1639   0.00736   0.00306  -0.0172   0.9117   0.8212   7.9674 149.9043
  -1.500  -0.1385   0.00748   0.00326  -0.0166   0.9081   0.8308   8.2005 150.4710
  -1.250  -0.1132   0.00758   0.00341  -0.0160   0.9046   0.8415   8.4326 151.1449
  -1.000  -0.0854   0.00770   0.00357  -0.0157   0.9019   0.8507   8.6064 151.8492
  -0.750  -0.0571   0.00777   0.00366  -0.0156   0.8997   0.8580   8.7540 153.0688
  -0.500  -0.0272   0.00792   0.00383  -0.0157   0.8978   0.8647   8.8781 153.4799
  -0.250  -0.0007   0.00812   0.00394  -0.0152   0.8951   0.8734   9.0509 154.0082
   0.000   0.0257   0.00820   0.00414  -0.0146   0.8902   0.8783   9.3688 154.3070
   0.250   0.0546   0.00807   0.00400  -0.0143   0.8845   0.8824   9.7369 154.5599
   0.500   0.0816   0.00791   0.00375  -0.0137   0.8762   0.8872  10.2717 154.8531
   0.750   0.1089   0.00771   0.00354  -0.0133   0.8680   0.8911  10.7974 155.0904
   1.000   0.1374   0.00766   0.00348  -0.0132   0.8625   0.8936  11.4264 155.2499
   1.250   0.1661   0.00763   0.00344  -0.0133   0.8584   0.8965  12.2803 155.4259
   1.500   0.1935   0.00762   0.00341  -0.0132   0.8537   0.9000  13.3770 155.6409
   1.750   0.2217   0.00757   0.00329  -0.0132   0.8494   0.9036  13.9718 155.8641
   2.000   0.2468   0.00752   0.00324  -0.0127   0.8429   0.9069  14.4325 156.0701
   2.250   0.2751   0.00745   0.00317  -0.0127   0.8363   0.9093  14.8834 156.2208
   2.500   0.3008   0.00744   0.00313  -0.0120   0.8269   0.9125  15.4809 156.4252
   2.750   0.3278   0.00742   0.00302  -0.0116   0.8173   0.9166  16.0782 156.6825
   3.000   0.3518   0.00739   0.00288  -0.0108   0.8061   0.9213  16.7584 156.9742
   3.250   0.3775   0.00730   0.00284  -0.0101   0.7938   0.9244  17.4852 157.1766
   3.500   0.4036   0.00728   0.00276  -0.0096   0.7791   0.9270  18.3375 157.3429
   3.750   0.4289   0.00726   0.00265  -0.0090   0.7601   0.9298  19.4141 157.5224
   4.000   0.4524   0.00727   0.00251  -0.0080   0.7346   0.9333  20.8369 157.7492
   4.250   0.4716   0.00734   0.00231  -0.0062   0.6896   0.9373  23.3196 158.0057
   4.500   0.4849   0.00772   0.00224  -0.0030   0.5966   0.9406  28.4470 158.2224
   4.750   0.4902   0.00854   0.00234   0.0015   0.4684   0.9452  35.5616 158.5343
   5.000   0.4994   0.00916   0.00240   0.0050   0.3771   0.9507  40.7051 158.8976
   5.250   0.5158   0.00964   0.00249   0.0069   0.3092   0.9542  44.6047 159.1405
   5.500   0.5360   0.01015   0.00261   0.0081   0.2512   0.9570  48.0204 159.3427
   5.750   0.5556   0.01065   0.00271   0.0093   0.1950   0.9607  51.4543 159.6019
   6.000   0.5637   0.01147   0.00283   0.0127   0.0981   0.9666  58.2815 160.0200
   6.250   0.5873   0.01222   0.00323   0.0130   0.0700   0.9688  61.0056 160.1891
   6.500   0.6152   0.01266   0.00346   0.0126   0.0594   0.9707  62.2942 160.3370
   6.750   0.6429   0.01312   0.00368   0.0121   0.0517   0.9728  63.3615 160.5020
   7.000   0.6690   0.01361   0.00392   0.0120   0.0461   0.9756  64.2144 160.7105
   7.250   0.6904   0.01406   0.00410   0.0129   0.0419   0.9796  64.9182 161.0218
   7.750   0.7536   0.01525   0.00480   0.0100   0.0351   0.9815  66.2200 161.1828
   8.000   0.7848   0.01576   0.00509   0.0087   0.0325   0.9826  66.7721 161.2797
