  
       XFOIL         Version 6.99
  
 Calculated polar for: thick_test2                                     
  
 1 1 Reynolds number fixed          Mach number fixed         
  
 xtrf =   1.000 (top)        1.000 (bottom)  
 Mach =   0.000     Re =     0.700 e 6     Ncrit =  12.000 12.000
  
   alpha    CL        CD       CDp       CM     Top_Xtr  Bot_Xtr  Top_Itr  Bot_Itr
  ------ -------- --------- --------- -------- -------- -------- -------- --------
  -0.080   0.4000   0.00665   0.00187  -0.1115   0.9061   0.6890   8.9190 140.7897
  -0.080   0.4000   0.00665   0.00187  -0.1115   0.9061   0.6890   8.9185 140.7889
   0.263   0.4000   0.00612   0.00141  -0.1032   0.8754   0.7053  12.4331 142.7162
   0.267   0.4000   0.00610   0.00137  -0.1036   0.8739   0.7061  12.5395 142.7605
   0.132   0.4000   0.00607   0.00098  -0.1056   0.8008   0.7171  17.1979 143.3829
  -0.080   0.4000   0.00665   0.00187  -0.1115   0.9061   0.6890   8.9190 140.7897
   0.264   0.4000   0.00613   0.00141  -0.1032   0.8751   0.7055  10.4447 141.0332
   0.267   0.4000   0.00610   0.00137  -0.1036   0.8739   0.7061  12.5396 142.7606
   0.167   0.4000   0.00623   0.00153  -0.1055   0.8859   0.7004   9.8053 140.4371
   0.171   0.4000   0.00638   0.00175  -0.1058   0.9036   0.7110   8.6493 141.0383
